[TITLE]
;;Project Title/Notes
Delta
Anonymized

[OPTIONS]
;;Option             Value
FLOW_UNITS           CFS
INFILTRATION         GREEN_AMPT
FLOW_ROUTING         DYNWAVE
LINK_OFFSETS         ELEVATION
MIN_SLOPE            0
ALLOW_PONDING        YES
SKIP_STEADY_STATE    NO

START_DATE           06/23/2013
START_TIME           00:00:00
REPORT_START_DATE    06/23/2013
REPORT_START_TIME    00:00:00
END_DATE             06/29/2013
END_TIME             00:00:00
SWEEP_START          01/01
SWEEP_END            12/31
DRY_DAYS             0
REPORT_STEP          00:05:00
WET_STEP             00:01:00
DRY_STEP             00:05:00
ROUTING_STEP         0:00:30 

INERTIAL_DAMPING     PARTIAL
NORMAL_FLOW_LIMITED  FROUDE
FORCE_MAIN_EQUATION  H-W
VARIABLE_STEP        0.75
LENGTHENING_STEP     0
MIN_SURFAREA         12.557
MAX_TRIALS           8
HEAD_TOLERANCE       0.005
SYS_FLOW_TOL         5
LAT_FLOW_TOL         5
MINIMUM_STEP         0.5
THREADS              1

[EVAPORATION]
;;Data Source    Parameters
;;-------------- ----------------
CONSTANT         0.0
DRY_ONLY         NO

[RAINGAGES]
;;Name           Format    Interval SCF      Source    
;;-------------- --------- ------ ------ ----------
RG               CUMULATIVE 0:05     1.0      TIMESERIES June24-262013   

[SUBCATCHMENTS]
;;Name           Rain Gage        Outlet           Area     %Imperv  Width    %Slope   CurbLen  SnowPack        
;;-------------- ---------------- ---------------- -------- -------- -------- -------- -------- ----------------
subcatchment_centralB RG               junction_SCcentralB 106.22   18.0     15422.0  3.78     0.0                      
subcatchment_south1B RG               junction_SCsouth1B 93.2     17.66    5000.0   3.7      0.0                      
subcatchment_south2A RG               basin_south2_storage 23.665   14.77    4000.0   2.18     0.0                      
subcatchment_south1A RG               basin_south1_storage 36.2     13.8     2600.0   1.38     0.0                      
subcatchment_centralA RG               basin_central_storage 20.38    14.7     1000.0   0.55     0.0                      
subcatchment_northneighborhood RG               junction_SCnorthneighborhood 34.219   18.6     1630.0   1.12     0.0                      
subcatchment_south2B RG               junction_SCsouth2B 38.55    28.7     3300.0   3.6      0.0                      
subcatchment_south3 RG               junction_SCsouth3 20.08    18.7     2376.0   3.67     0.0                      
subcatchment_south4 RG               junction_SCsouth4 45.58    27.5     2600.0   3.5      0.0                      

[SUBAREAS]
;;Subcatchment   N-Imperv   N-Perv     S-Imperv   S-Perv     PctZero    RouteTo    PctRouted 
;;-------------- ---------- ---------- ---------- ---------- ---------- ---------- ----------
subcatchment_centralB 0.02       0.27       0.025      0.186      0          IMPERVIOUS 100       
subcatchment_south1B 0.02       0.29       0.024      0.189      0          OUTLET    
subcatchment_south2A 0.02       0.29       0.024      0.189      25         OUTLET    
subcatchment_south1A 0.02       0.29       0.024      0.189      25         OUTLET    
subcatchment_centralA 0.02       0.27       0.025      0.186      25         OUTLET    
subcatchment_northneighborhood 0.02       0.27       0.025      0.186      25         OUTLET    
subcatchment_south2B 0.02       0.29       0.024      0.189      25         OUTLET    
subcatchment_south3 0.02       0.29       0.024      0.189      25         OUTLET    
subcatchment_south4 0.02       0.29       0.024      0.189      25         OUTLET    

[INFILTRATION]
;;Subcatchment   Suction    Ksat       IMD       
;;-------------- ---------- ---------- ----------
subcatchment_centralB 3.832      1.16       0.187     
subcatchment_south1B 4.127      1.56       0.177     
subcatchment_south2A 3          0.5        4         
subcatchment_south1A 3          0.5        4         
subcatchment_centralA 3          0.5        4         
subcatchment_northneighborhood 3          0.5        4         
subcatchment_south2B 3          0.5        4         
subcatchment_south3 3          0.5        4         
subcatchment_south4 3          0.5        4         

[JUNCTIONS]
;;Name           Elevation  MaxDepth   InitDepth  SurDepth   Aponded   
;;-------------- ---------- ---------- ---------- ---------- ----------
junction_SCnorthneighborhood 836.5      12.7       0.0        0.0        0.0       
junction_SCcentralB 846.0      9.05       0.0        0.0        5000.0    
junction_SCsouth1B 845.0      9.0        0.0        0.0        5000.0    
junction_SCsouth2B 850.0      10.0       0.0        0.0        0.0       
junction_SCsouth3 850.0      10.0       0.0        0.0        0.0       
junction_SCsouth4 852.0      10.0       0.0        0.0        0.0       
junction_centraltonorthB 834.02     11.23      0.0        0.0        0.0       
junction_centraltonorthA 834.02     11.23      0.0        0.0        0.0       
junction_westinflow 837.2      6.0        0.0        0.0        5000.0    
junction_centraltowestB 829.27     16.89      0.0        0.0        0.0       
junction_centraltowestA 829.27     16.89      0.0        0.0        0.0       
junction_south3to2A 835.28     17.27      7.1        0.0        0.0       
junction_south3to2B 835.28     17.27      7.1        0.0        0.0       
junction_south2to1A 832.34     15.47      0.0        0.0        0.0       
junction_south2to1B 832.34     15.47      0.0        0.0        0.0       
junction_southtocentralA 833.31     11.55      0.0        0.0        0.0       
junction_southtocentralB 833.31     11.55      0.0        0.0        0.0       
junction_southtocentralC 835.57     8.53       0.0        0.0        0.0       
junction_west    831.69     8.31       0.0        0.0        5000.0    
junction_westinflowA 834.41     10.59      0.0        0.0        5000.0    

[OUTFALLS]
;;Name           Elevation  Type       Stage Data       Gated    Route To        
;;-------------- ---------- ---------- ---------------- -------- ----------------
westoutfall_bound 825.46     FREE                        NO                       

[STORAGE]
;;Name           Elev.    MaxDepth   InitDepth  Shape      Curve Name/Params            N/A      Fevap    Psi      Ksat     IMD     
;;-------------- -------- ---------- ----------- ---------- ---------------------------- -------- --------          -------- --------
basin_central_storage 833.5    11.5       3.38       TABULAR    BasinCentral                 0.000000 0.000000
basin_south1_storage 835.0    11.0       5.3        TABULAR    BasinSouth1                  0.000000 0.000000
basin_south2_storage 837.0    12.0       4.54       TABULAR    BasinSouth2                  0.000000 0.000000
basin_south3_storage 837.0    16.0       5.42       TABULAR    BasinSouth3                  0.000000 0.000000
basin_south4_storage 847.0    9.0        6.5        TABULAR    BasinSouth4                  0.000000 0.000000
basin_north_infilitration 827.0    20.0       0.7        TABULAR    BasinNorth                   0.000000 0.000000

[CONDUITS]
;;Name           From Node        To Node          Length     Roughness  InOffset   OutOffset  InitFlow   MaxFlow   
;;-------------- ---------------- ---------------- ---------- ---------- ---------- ---------- ---------- ----------
conduit_south4to3 basin_south4_storage basin_south3_storage 566.8      0.02       853.5      848.2      0.0        0.0       
conduit_centraltowestA basin_central_storage junction_centraltowestA 114.0      0.01       833.92     833.82     0.0        0.0       
conduit_southtocentralC junction_southtocentralC basin_central_storage 422.0      0.01       0.0        834.96     0.0        0.0       
conduit_southtocentralB junction_southtocentralB junction_southtocentralC 297.0      0.01       837.25     0.0        0.0        0.0       
conduit_southtocentralA basin_south1_storage junction_southtocentralA 41.0       0.01       837.67     837.25     0.0        0.0       
conduit_south3to2A basin_south3_storage junction_south3to2A 171.4      0.01       842.42     842.35     0.0        0.0       
conduit_south3to2B junction_south3to2B basin_south2_storage 228.57     0.01       842.35     841.54     0.0        0.0       
conduit_south2to1A basin_south2_storage junction_south2to1A 314.0      0.01       839.04     838.14     0.0        0.0       
conduit_south2to1B junction_south2to1B basin_south1_storage 229.0      0.01       838.14     837.8      0.0        0.0       
conduit_centraltonorthA basin_central_storage junction_centraltonorthA 50.0       0.01       834.66     0.0        0.0        0.0       
conduit_centraltowestB junction_centraltowestB junction_west    148.0      0.01       832.17     0.0        0.0        0.0       
conduit_centraltonorthB junction_centraltonorthB basin_north_infilitration 52.0       0.01       0.0        827.7      0.0        0.0       
conduit_SCnorthneighborhood basin_north_infilitration junction_SCnorthneighborhood 1140.0     0.012      833.55     0.0        0.0        0.0       
conduit_SCsouth2B junction_SCsouth2B basin_south2_storage 1000.0     0.01       0.0        0.0        0.0        0.0       
conduit_SCsouth3 junction_SCsouth3 basin_south3_storage 200.0      0.01       0.0        0.0        0.0        0.0       
conduit_SCsouth4 junction_SCsouth4 basin_south4_storage 1300.0     0.01       0.0        0.0        0.0        0.0       
conduit_westinflowA junction_westinflow junction_westinflowA 1177.0     0.014      0.0        834.846    0.0        0.0       
conduit_westoutfall junction_west    westoutfall_bound 2147.0     0.01       0.0        0.0        0.0        0.0       
conduit_westinflowB junction_westinflowA junction_west    970.0      0.01       0.0        0.0        0.0        0.0       
conduit_SCcentralB junction_SCcentralB basin_central_storage 630.0      0.014      0.0        0.0        0.0        0.0       
conduit_SCsouth1B junction_SCsouth1B basin_south1_storage 800.0      0.014      0.0        0.0        0.0        0.0       

[ORIFICES]
;;Name           From Node        To Node          Type         Offset     Qcoeff     Gated    CloseTime 
;;-------------- ---------------- ---------------- ------------ ---------- ---------- -------- ----------
orifice_centraltonorth junction_centraltonorthA junction_centraltonorthB SIDE         0.0        0.65       NO       0.0       
orifice_southtocentral junction_southtocentralA junction_southtocentralB SIDE         840.92     0.65       NO       0.0       
orifice_south3to2 junction_south3to2A junction_south3to2B SIDE         848.99     0.65       NO       0.0       
orifice_south2to1 junction_south2to1A junction_south2to1B SIDE         844.4      0.65       NO       0.0       
orifice_centraltowest junction_centraltowestA junction_centraltowestB SIDE         839.72     0.65       NO       0.0       

[WEIRS]
;;Name           From Node        To Node          Type         CrestHt    Qcoeff     Gated    EndCon   EndCoeff   Surcharge  RoadWidth  RoadSurf  
;;-------------- ---------------- ---------------- ------------ ---------- ---------- -------- -------- ---------- ---------- ---------- ----------
weir_centraltowest junction_centraltowestA junction_centraltowestB TRANSVERSE   834.5      3.33       NO       0.0      0.0        YES       
weir_southtocentral junction_southtocentralA junction_southtocentralB TRANSVERSE   837.11     3.33       NO       0.0      0.0        YES       
weir_south3to2   junction_south3to2A junction_south3to2B TRANSVERSE   842.28     3.33       NO       0.0      0.0        YES       
weir_south2to1   junction_south2to1A junction_south2to1B TRANSVERSE   838.09     3.33       NO       0.0      0.0        YES       

[XSECTIONS]
;;Link           Shape        Geom1            Geom2      Geom3      Geom4      Barrels    Culvert   
;;-------------- ------------ ---------------- ---------- ---------- ---------- ---------- ----------
conduit_south4to3 CIRCULAR     1.0              0.0        0.0        0.0        1          0         
conduit_centraltowestA CIRCULAR     3.0              0.0        0.0        0.0        1          0         
conduit_southtocentralC CIRCULAR     2.5              0.0        0.0        0.0        1          0         
conduit_southtocentralB CIRCULAR     1.5              0.0        0.0        0.0        1          0         
conduit_southtocentralA CIRCULAR     1.5              0.0        0.0        0.0        1          0         
conduit_south3to2A CIRCULAR     3.0              0.0        0.0        0.0        1          0         
conduit_south3to2B CIRCULAR     3.0              0.0        0.0        0.0        1          0         
conduit_south2to1A CIRCULAR     1.5              0.0        0.0        0.0        1          0         
conduit_south2to1B CIRCULAR     1.5              0.0        0.0        0.0        1          0         
conduit_centraltonorthA CIRCULAR     1.0              0.0        0.0        0.0        1          0         
conduit_centraltowestB CIRCULAR     2.0              0.0        0.0        0.0        1          0         
conduit_centraltonorthB CIRCULAR     1.0              0.0        0.0        0.0        1          0         
conduit_SCnorthneighborhood CIRCULAR     4.0              0.0        0.0        0.0        1          0         
conduit_SCsouth2B CIRCULAR     2.0              0.0        0.0        0.0        1          0         
conduit_SCsouth3 CIRCULAR     1.0              0.0        0.0        0.0        1          0         
conduit_SCsouth4 CIRCULAR     24.0             0.0        0.0        0.0        1          0         
conduit_westinflowA CIRCULAR     1.5              0.0        0.0        0.0        1          0         
conduit_westoutfall CIRCULAR     1.75             0.0        0.0        0.0        1          0         
conduit_westinflowB CIRCULAR     1.75             0.0        0.0        0.0        1          0         
conduit_SCcentralB CIRCULAR     1.5              0.0        0.0        0.0        1          0         
conduit_SCsouth1B CIRCULAR     1.5              0.0        0.0        0.0        1          0         
orifice_centraltonorth CIRCULAR     1.0              0          0          0
orifice_southtocentral RECT_CLOSED  10.0             3.0        0          0
orifice_south3to2 RECT_CLOSED  10.0             3.0        0          0
orifice_south2to1 RECT_CLOSED  10.0             3.0        0          0
orifice_centraltowest RECT_CLOSED  10.0             3.0        0          0
weir_centraltowest RECT_OPEN    4.92             3.0        0.0        0.0       
weir_southtocentral RECT_OPEN    3.81             3.0        0.0        0.0       
weir_south3to2   RECT_OPEN    6.71             3.0        0.0        0.0       
weir_south2to1   RECT_OPEN    5.5              3.0        0.0        0.0       

[LOSSES]
;;Link           Kentry     Kexit      Kavg       Flap Gate  Seepage   
;;-------------- ---------- ---------- ---------- ---------- ----------
conduit_south4to3 0.5        0.0        0.0        NO         0.0       
conduit_centraltowestB 0.0        0.0        0.0        YES        0.0       

[CONTROLS]


[INFLOWS]
;;Node           Constituent      Time Series      Type     Mfactor  Sfactor  Baseline Pattern
;;-------------- ---------------- ---------------- -------- -------- -------- -------- --------
junction_westinflow Flow             ""               FLOW     1.0      1.0              
junction_west    Flow             ""               FLOW     1.0      1.0              

[CURVES]
;;Name           Type       X-Value    Y-Value   
;;-------------- ---------- ---------- ----------
BasinCentral     Storage    0.0        30944.0   
BasinCentral                1.5        152203.0  
BasinCentral                3.38       155968.0  
BasinCentral                5.38       191373.0  
;
BasinNorth       Storage    0.0        14184.0   
BasinNorth                  4.8        26000.0   
;
BasinSouth1      Storage    0.0        32669.0   
BasinSouth1                 2.7        118927.0  
BasinSouth1                 4.3        178181.0  
BasinSouth1                 8.8        231072.0  
;
BasinSouth2      Storage    0.0        62500.0   
BasinSouth2                 2.04       63000.0   
BasinSouth2                 3.0        107025.0  
BasinSouth2                 4.54       186953.0  
BasinSouth2                 7.25       362040.0  
;
BasinSouth3      Storage    0.0        0.0       
BasinSouth3                 1.03       0.0       
BasinSouth3                 5.42       75340.0   
BasinSouth3                 12.1       78040.0   
;
BasinSouth4      Storage    0.0        18716.0   
BasinSouth4                 6.5        45719.0   

[TIMESERIES]
;;Name           Date       Time       Value     
;;-------------- ---------- ---------- ----------
Dryrun                      0          0         
;
June24-262013    6/24/2013  0:00       0.00      
June24-262013    6/24/2013  0:05       0.00      
June24-262013    6/24/2013  0:10       0.00      
June24-262013    6/24/2013  0:15       0.00      
June24-262013    6/24/2013  0:20       0.00      
June24-262013    6/24/2013  0:25       0.00      
June24-262013    6/24/2013  0:30       0.00      
June24-262013    6/24/2013  0:35       0.00      
June24-262013    6/24/2013  0:40       0.00      
June24-262013    6/24/2013  0:45       0.00      
June24-262013    6/24/2013  0:50       0.00      
June24-262013    6/24/2013  0:55       0.00      
June24-262013    6/24/2013  1:00       0.00      
June24-262013    6/24/2013  1:05       0.00      
June24-262013    6/24/2013  1:10       0.00      
June24-262013    6/24/2013  1:15       0.00      
June24-262013    6/24/2013  1:20       0.00      
June24-262013    6/24/2013  1:25       0.00      
June24-262013    6/24/2013  1:30       0.00      
June24-262013    6/24/2013  1:35       0.00      
June24-262013    6/24/2013  1:40       0.00      
June24-262013    6/24/2013  1:45       0.00      
June24-262013    6/24/2013  1:50       0.00      
June24-262013    6/24/2013  1:55       0.00      
June24-262013    6/24/2013  2:00       0.00      
June24-262013    6/24/2013  2:05       0.00      
June24-262013    6/24/2013  2:10       0.00      
June24-262013    6/24/2013  2:15       0.00      
June24-262013    6/24/2013  2:20       0.00      
June24-262013    6/24/2013  2:25       0.00      
June24-262013    6/24/2013  2:30       0.00      
June24-262013    6/24/2013  2:35       0.00      
June24-262013    6/24/2013  2:40       0.00      
June24-262013    6/24/2013  2:45       0.00      
June24-262013    6/24/2013  2:50       0.00      
June24-262013    6/24/2013  2:55       0.00      
June24-262013    6/24/2013  3:00       0.00      
June24-262013    6/24/2013  3:05       0.00      
June24-262013    6/24/2013  3:10       0.00      
June24-262013    6/24/2013  3:15       0.00      
June24-262013    6/24/2013  3:20       0.00      
June24-262013    6/24/2013  3:25       0.00      
June24-262013    6/24/2013  3:30       0.00      
June24-262013    6/24/2013  3:35       0.00      
June24-262013    6/24/2013  3:40       0.00      
June24-262013    6/24/2013  3:45       0.00      
June24-262013    6/24/2013  3:50       0.00      
June24-262013    6/24/2013  3:55       0.00      
June24-262013    6/24/2013  4:00       0.00      
June24-262013    6/24/2013  4:05       0.00      
June24-262013    6/24/2013  4:10       0.00      
June24-262013    6/24/2013  4:15       0.00      
June24-262013    6/24/2013  4:20       0.00      
June24-262013    6/24/2013  4:25       0.00      
June24-262013    6/24/2013  4:30       0.00      
June24-262013    6/24/2013  4:35       0.00      
June24-262013    6/24/2013  4:40       0.00      
June24-262013    6/24/2013  4:45       0.00      
June24-262013    6/24/2013  4:50       0.00      
June24-262013    6/24/2013  4:55       0.00      
June24-262013    6/24/2013  5:00       0.00      
June24-262013    6/24/2013  5:05       0.00      
June24-262013    6/24/2013  5:10       0.00      
June24-262013    6/24/2013  5:15       0.00      
June24-262013    6/24/2013  5:20       0.00      
June24-262013    6/24/2013  5:25       0.00      
June24-262013    6/24/2013  5:30       0.00      
June24-262013    6/24/2013  5:35       0.00      
June24-262013    6/24/2013  5:40       0.00      
June24-262013    6/24/2013  5:45       0.00      
June24-262013    6/24/2013  5:50       0.00      
June24-262013    6/24/2013  5:55       0.00      
June24-262013    6/24/2013  6:00       0.00      
June24-262013    6/24/2013  6:05       0.00      
June24-262013    6/24/2013  6:10       0.00      
June24-262013    6/24/2013  6:15       0.00      
June24-262013    6/24/2013  6:20       0.00      
June24-262013    6/24/2013  6:25       0.00      
June24-262013    6/24/2013  6:30       0.00      
June24-262013    6/24/2013  6:35       0.00      
June24-262013    6/24/2013  6:40       0.00      
June24-262013    6/24/2013  6:45       0.00      
June24-262013    6/24/2013  6:50       0.00      
June24-262013    6/24/2013  6:55       0.00      
June24-262013    6/24/2013  7:00       0.00      
June24-262013    6/24/2013  7:05       0.00      
June24-262013    6/24/2013  7:10       0.00      
June24-262013    6/24/2013  7:15       0.00      
June24-262013    6/24/2013  7:20       0.00      
June24-262013    6/24/2013  7:25       0.00      
June24-262013    6/24/2013  7:30       0.00      
June24-262013    6/24/2013  7:35       0.00      
June24-262013    6/24/2013  7:40       0.00      
June24-262013    6/24/2013  7:45       0.00      
June24-262013    6/24/2013  7:50       0.00      
June24-262013    6/24/2013  7:55       0.00      
June24-262013    6/24/2013  8:00       0.00      
June24-262013    6/24/2013  8:05       0.00      
June24-262013    6/24/2013  8:10       0.00      
June24-262013    6/24/2013  8:15       0.00      
June24-262013    6/24/2013  8:20       0.00      
June24-262013    6/24/2013  8:25       0.00      
June24-262013    6/24/2013  8:30       0.00      
June24-262013    6/24/2013  8:35       0.00      
June24-262013    6/24/2013  8:40       0.00      
June24-262013    6/24/2013  8:45       0.00      
June24-262013    6/24/2013  8:50       0.00      
June24-262013    6/24/2013  8:55       0.00      
June24-262013    6/24/2013  9:00       0.00      
June24-262013    6/24/2013  9:05       0.00      
June24-262013    6/24/2013  9:10       0.00      
June24-262013    6/24/2013  9:15       0.00      
June24-262013    6/24/2013  9:20       0.00      
June24-262013    6/24/2013  9:25       0.00      
June24-262013    6/24/2013  9:30       0.00      
June24-262013    6/24/2013  9:35       0.00      
June24-262013    6/24/2013  9:40       0.00      
June24-262013    6/24/2013  9:45       0.00      
June24-262013    6/24/2013  9:50       0.00      
June24-262013    6/24/2013  9:55       0.00      
June24-262013    6/24/2013  10:00      0.00      
June24-262013    6/24/2013  10:05      0.00      
June24-262013    6/24/2013  10:10      0.00      
June24-262013    6/24/2013  10:15      0.00      
June24-262013    6/24/2013  10:20      0.00      
June24-262013    6/24/2013  10:25      0.00      
June24-262013    6/24/2013  10:30      0.00      
June24-262013    6/24/2013  10:35      0.00      
June24-262013    6/24/2013  10:40      0.00      
June24-262013    6/24/2013  10:45      0.00      
June24-262013    6/24/2013  10:50      0.00      
June24-262013    6/24/2013  10:55      0.00      
June24-262013    6/24/2013  11:00      0.00      
June24-262013    6/24/2013  11:05      0.00      
June24-262013    6/24/2013  11:10      0.00      
June24-262013    6/24/2013  11:15      0.00      
June24-262013    6/24/2013  11:20      0.00      
June24-262013    6/24/2013  11:25      0.00      
June24-262013    6/24/2013  11:30      0.00      
June24-262013    6/24/2013  11:35      0.00      
June24-262013    6/24/2013  11:40      0.00      
June24-262013    6/24/2013  11:45      0.00      
June24-262013    6/24/2013  11:50      0.00      
June24-262013    6/24/2013  11:55      0.00      
June24-262013    6/24/2013  12:00      0.00      
June24-262013    6/24/2013  12:05      0.00      
June24-262013    6/24/2013  12:10      0.00      
June24-262013    6/24/2013  12:15      0.00      
June24-262013    6/24/2013  12:20      0.00      
June24-262013    6/24/2013  12:25      0.00      
June24-262013    6/24/2013  12:30      0.00      
June24-262013    6/24/2013  12:35      0.00      
June24-262013    6/24/2013  12:40      0.00      
June24-262013    6/24/2013  12:45      0.00      
June24-262013    6/24/2013  12:50      0.00      
June24-262013    6/24/2013  12:55      0.00      
June24-262013    6/24/2013  13:00      0.00      
June24-262013    6/24/2013  13:05      0.00      
June24-262013    6/24/2013  13:10      0.00      
June24-262013    6/24/2013  13:15      0.00      
June24-262013    6/24/2013  13:20      0.00      
June24-262013    6/24/2013  13:25      0.00      
June24-262013    6/24/2013  13:30      0.00      
June24-262013    6/24/2013  13:35      0.00      
June24-262013    6/24/2013  13:40      0.00      
June24-262013    6/24/2013  13:45      0.00      
June24-262013    6/24/2013  13:50      0.00      
June24-262013    6/24/2013  13:55      0.00      
June24-262013    6/24/2013  14:00      0.00      
June24-262013    6/24/2013  14:05      0.00      
June24-262013    6/24/2013  14:10      0.00      
June24-262013    6/24/2013  14:15      0.00      
June24-262013    6/24/2013  14:20      0.00      
June24-262013    6/24/2013  14:25      0.00      
June24-262013    6/24/2013  14:30      0.00      
June24-262013    6/24/2013  14:35      0.00      
June24-262013    6/24/2013  14:40      0.00      
June24-262013    6/24/2013  14:45      0.00      
June24-262013    6/24/2013  14:50      0.00      
June24-262013    6/24/2013  14:55      0.00      
June24-262013    6/24/2013  15:00      0.00      
June24-262013    6/24/2013  15:05      0.00      
June24-262013    6/24/2013  15:10      0.00      
June24-262013    6/24/2013  15:15      0.00      
June24-262013    6/24/2013  15:20      0.00      
June24-262013    6/24/2013  15:25      0.00      
June24-262013    6/24/2013  15:30      0.00      
June24-262013    6/24/2013  15:35      0.00      
June24-262013    6/24/2013  15:40      0.00      
June24-262013    6/24/2013  15:45      0.00      
June24-262013    6/24/2013  15:50      0.00      
June24-262013    6/24/2013  15:55      0.00      
June24-262013    6/24/2013  16:00      0.00      
June24-262013    6/24/2013  16:05      0.00      
June24-262013    6/24/2013  16:10      0.00      
June24-262013    6/24/2013  16:15      0.00      
June24-262013    6/24/2013  16:20      0.00      
June24-262013    6/24/2013  16:25      0.00      
June24-262013    6/24/2013  16:30      0.00      
June24-262013    6/24/2013  16:35      0.00      
June24-262013    6/24/2013  16:40      0.00      
June24-262013    6/24/2013  16:45      0.00      
June24-262013    6/24/2013  16:50      0.00      
June24-262013    6/24/2013  16:55      0.00      
June24-262013    6/24/2013  17:00      0.00      
June24-262013    6/24/2013  17:05      0.00      
June24-262013    6/24/2013  17:10      0.00      
June24-262013    6/24/2013  17:15      0.00      
June24-262013    6/24/2013  17:20      0.00      
June24-262013    6/24/2013  17:25      0.00      
June24-262013    6/24/2013  17:30      0.00      
June24-262013    6/24/2013  17:35      0.00      
June24-262013    6/24/2013  17:40      0.00      
June24-262013    6/24/2013  17:45      0.00      
June24-262013    6/24/2013  17:50      0.00      
June24-262013    6/24/2013  17:55      0.00      
June24-262013    6/24/2013  18:00      0.00      
June24-262013    6/24/2013  18:05      0.00      
June24-262013    6/24/2013  18:10      0.00      
June24-262013    6/24/2013  18:15      0.00      
June24-262013    6/24/2013  18:20      0.00      
June24-262013    6/24/2013  18:25      0.00      
June24-262013    6/24/2013  18:30      0.00      
June24-262013    6/24/2013  18:35      0.00      
June24-262013    6/24/2013  18:40      0.00      
June24-262013    6/24/2013  18:45      0.00      
June24-262013    6/24/2013  18:50      0.00      
June24-262013    6/24/2013  18:55      0.00      
June24-262013    6/24/2013  19:00      0.00      
June24-262013    6/24/2013  19:05      0.00      
June24-262013    6/24/2013  19:10      0.00      
June24-262013    6/24/2013  19:15      0.00      
June24-262013    6/24/2013  19:20      0.00      
June24-262013    6/24/2013  19:25      0.00      
June24-262013    6/24/2013  19:30      0.00      
June24-262013    6/24/2013  19:35      0.00      
June24-262013    6/24/2013  19:40      0.00      
June24-262013    6/24/2013  19:45      0.00      
June24-262013    6/24/2013  19:50      0.00      
June24-262013    6/24/2013  19:55      0.00      
June24-262013    6/24/2013  20:00      0.00      
June24-262013    6/24/2013  20:05      0.00      
June24-262013    6/24/2013  20:10      0.00      
June24-262013    6/24/2013  20:15      0.00      
June24-262013    6/24/2013  20:20      0.00      
June24-262013    6/24/2013  20:25      0.03      
June24-262013    6/24/2013  20:30      0.20      
June24-262013    6/24/2013  20:35      0.39      
June24-262013    6/24/2013  20:40      0.44      
June24-262013    6/24/2013  20:45      0.46      